/*--------------------------------*- C++ -*----------------------------------*\
  =========                 |
  \\      /  F ield         | OpenFOAM: The Open Source CFD Toolbox
   \\    /   O peration     | Website:  https://openfoam.org
    \\  /    A nd           | Version:  7
     \\/     M anipulation  |
\*---------------------------------------------------------------------------*/
FoamFile
{
    version     2.0;
    format      ascii;
    class       polyBoundaryMesh;
    location    "constant/filmRegion/polyMesh";
    object      boundary;
}
// * * * * * * * * * * * * * * * * * * * * * * * * * * * * * * * * * * * * * //

6
(
    outlet
    {
        type            patch;
        nFaces          20;
        startFace       760;
    }
    inlet
    {
        type            patch;
        nFaces          20;
        startFace       780;
    }
    coupledWall_top
    {
        type            patch;
        nFaces          400;
        startFace       800;
    }
    region0_to_filmRegion_coupledWall
    {
        type            mappedWall;
        inGroups        List<word> 
2
(
wall
mappedPatch
)
;
        nFaces          400;
        startFace       1200;
        sampleMode      nearestPatchFace;
        sampleRegion    region0;
        samplePatch     region0_to_pyrolysisRegion_coupledWall;
        offsetMode      nonuniform;
        offsets         nonuniform List<vector> 
400
(
(0 0 1.38778e-17)
(0 1.38778e-17 1.38778e-17)
(0 -1.38778e-17 0)
(0 0 1.38778e-17)
(0 0 0)
(0 0 0)
(0 -5.55112e-17 0)
(0 5.55112e-17 0)
(0 0 0)
(0 0 0)
(0 0 0)
(0 0 6.93889e-18)
(0 1.11022e-16 0)
(0 -1.11022e-16 6.93889e-18)
(0 1.11022e-16 0)
(0 2.22045e-16 6.93889e-18)
(0 2.22045e-16 6.93889e-18)
(0 1.11022e-16 0)
(0 1.11022e-16 6.93889e-18)
(0 2.22045e-16 0)
(0 0 -2.77556e-17)
(0 -1.38778e-17 2.77556e-17)
(0 -1.38778e-17 2.77556e-17)
(0 0 2.77556e-17)
(0 0 2.77556e-17)
(0 -5.55112e-17 0)
(0 -5.55112e-17 0)
(0 1.11022e-16 2.77556e-17)
(0 0 0)
(0 0 0)
(0 0 2.77556e-17)
(0 -1.11022e-16 -5.55112e-17)
(0 1.11022e-16 2.77556e-17)
(0 -1.11022e-16 -5.55112e-17)
(0 2.22045e-16 2.77556e-17)
(0 1.11022e-16 2.77556e-17)
(0 1.11022e-16 -5.55112e-17)
(0 2.22045e-16 2.77556e-17)
(0 -1.11022e-16 -5.55112e-17)
(0 1.11022e-16 2.77556e-17)
(0 0 -2.77556e-17)
(0 -1.38778e-17 -2.77556e-17)
(0 0 0)
(0 -2.77556e-17 -2.77556e-17)
(0 -2.77556e-17 0)
(0 -5.55112e-17 0)
(0 0 0)
(0 5.55112e-17 5.55112e-17)
(0 -5.55112e-17 0)
(0 5.55112e-17 0)
(0 -1.11022e-16 5.55112e-17)
(0 0 0)
(0 2.22045e-16 5.55112e-17)
(0 0 0)
(0 2.22045e-16 1.11022e-16)
(0 2.22045e-16 5.55112e-17)
(0 1.11022e-16 0)
(0 1.11022e-16 5.55112e-17)
(0 0 0)
(0 3.33067e-16 1.11022e-16)
(0 -3.46945e-18 1.11022e-16)
(0 1.38778e-17 5.55112e-17)
(0 0 5.55112e-17)
(0 0 1.11022e-16)
(0 -2.77556e-17 0)
(0 0 5.55112e-17)
(0 0 5.55112e-17)
(0 5.55112e-17 5.55112e-17)
(0 1.11022e-16 1.11022e-16)
(0 5.55112e-17 5.55112e-17)
(0 0 5.55112e-17)
(0 -2.22045e-16 -5.55112e-17)
(0 1.11022e-16 5.55112e-17)
(0 0 -5.55112e-17)
(0 2.22045e-16 5.55112e-17)
(0 2.22045e-16 5.55112e-17)
(0 1.11022e-16 -5.55112e-17)
(0 1.11022e-16 5.55112e-17)
(0 -1.11022e-16 -5.55112e-17)
(0 3.33067e-16 5.55112e-17)
(0 0 0)
(0 -1.38778e-17 0)
(0 2.77556e-17 1.11022e-16)
(0 2.77556e-17 1.11022e-16)
(0 0 0)
(0 -5.55112e-17 5.55112e-17)
(0 0 5.55112e-17)
(0 5.55112e-17 0)
(0 -5.55112e-17 5.55112e-17)
(0 5.55112e-17 5.55112e-17)
(0 -1.11022e-16 0)
(0 0 5.55112e-17)
(0 2.22045e-16 0)
(0 0 5.55112e-17)
(0 2.22045e-16 0)
(0 2.22045e-16 0)
(0 1.11022e-16 5.55112e-17)
(0 0 0)
(0 0 5.55112e-17)
(0 2.22045e-16 0)
(0 0 0)
(0 -1.38778e-17 0)
(0 2.77556e-17 -1.11022e-16)
(0 0 0)
(0 -2.77556e-17 -1.11022e-16)
(0 -5.55112e-17 -1.11022e-16)
(0 -1.11022e-16 -2.22045e-16)
(0 0 1.11022e-16)
(0 -1.11022e-16 -2.22045e-16)
(0 -5.55112e-17 -2.22045e-16)
(0 1.11022e-16 1.11022e-16)
(0 0 -1.11022e-16)
(0 2.22045e-16 1.11022e-16)
(0 0 -1.11022e-16)
(0 0 0)
(0 2.22045e-16 1.11022e-16)
(0 1.11022e-16 -1.11022e-16)
(0 1.11022e-16 1.11022e-16)
(0 2.22045e-16 -1.11022e-16)
(0 1.11022e-16 0)
(0 0 -1.11022e-16)
(0 0 -2.22045e-16)
(0 2.77556e-17 0)
(0 0 0)
(0 -2.77556e-17 0)
(0 5.55112e-17 2.22045e-16)
(0 0 0)
(0 5.55112e-17 2.22045e-16)
(0 5.55112e-17 2.22045e-16)
(0 5.55112e-17 0)
(0 1.11022e-16 2.22045e-16)
(0 2.22045e-16 1.11022e-16)
(0 2.22045e-16 2.22045e-16)
(0 0 1.11022e-16)
(0 1.11022e-16 1.11022e-16)
(0 2.22045e-16 2.22045e-16)
(0 1.11022e-16 1.11022e-16)
(0 0 2.22045e-16)
(0 0 1.11022e-16)
(0 1.11022e-16 1.11022e-16)
(0 0 1.11022e-16)
(0 1.38778e-17 0)
(0 2.77556e-17 1.11022e-16)
(0 0 1.11022e-16)
(0 8.32667e-17 1.11022e-16)
(0 5.55112e-17 2.22045e-16)
(0 1.11022e-16 1.11022e-16)
(0 0 0)
(0 1.11022e-16 2.22045e-16)
(0 5.55112e-17 1.11022e-16)
(0 -1.11022e-16 0)
(0 1.11022e-16 1.11022e-16)
(0 -1.11022e-16 0)
(0 1.11022e-16 1.11022e-16)
(0 -1.11022e-16 -2.22045e-16)
(0 0 1.11022e-16)
(0 1.11022e-16 1.11022e-16)
(0 0 0)
(0 2.22045e-16 1.11022e-16)
(0 0 -2.22045e-16)
(0 0 0)
(0 0 0)
(0 2.77556e-17 -1.11022e-16)
(0 -2.77556e-17 0)
(0 -2.77556e-17 -1.11022e-16)
(0 5.55112e-17 1.11022e-16)
(0 -1.11022e-16 -2.22045e-16)
(0 0 2.22045e-16)
(0 0 0)
(0 -5.55112e-17 -2.22045e-16)
(0 1.11022e-16 2.22045e-16)
(0 2.22045e-16 1.11022e-16)
(0 2.22045e-16 2.22045e-16)
(0 0 1.11022e-16)
(0 0 1.11022e-16)
(0 2.22045e-16 2.22045e-16)
(0 1.11022e-16 1.11022e-16)
(0 1.11022e-16 2.22045e-16)
(0 0 1.11022e-16)
(0 1.11022e-16 1.11022e-16)
(0 0 -1.11022e-16)
(0 0 -1.11022e-16)
(0 2.77556e-17 1.11022e-16)
(0 0 1.11022e-16)
(0 -2.77556e-17 1.11022e-16)
(0 5.55112e-17 3.33067e-16)
(0 0 1.11022e-16)
(0 5.55112e-17 2.22045e-16)
(0 5.55112e-17 3.33067e-16)
(0 5.55112e-17 1.11022e-16)
(0 1.11022e-16 2.22045e-16)
(0 2.22045e-16 1.11022e-16)
(0 2.22045e-16 2.22045e-16)
(0 0 1.11022e-16)
(0 1.11022e-16 1.11022e-16)
(0 2.22045e-16 1.11022e-16)
(0 1.11022e-16 1.11022e-16)
(0 0 2.22045e-16)
(0 0 1.11022e-16)
(0 1.11022e-16 1.11022e-16)
(0 0 0)
(0 1.38778e-17 0)
(0 2.77556e-17 4.44089e-16)
(0 0 0)
(0 8.32667e-17 4.44089e-16)
(0 5.55112e-17 2.22045e-16)
(0 1.11022e-16 2.22045e-16)
(0 0 -2.22045e-16)
(0 1.11022e-16 2.22045e-16)
(0 5.55112e-17 2.22045e-16)
(0 -1.11022e-16 -2.22045e-16)
(0 1.11022e-16 0)
(0 -1.11022e-16 -2.22045e-16)
(0 1.11022e-16 0)
(0 -1.11022e-16 -2.22045e-16)
(0 0 -2.22045e-16)
(0 1.11022e-16 0)
(0 0 -2.22045e-16)
(0 2.22045e-16 0)
(0 0 -2.22045e-16)
(0 0 0)
(0 4.16334e-17 2.22045e-16)
(0 0 0)
(0 -2.77556e-17 2.22045e-16)
(0 -2.77556e-17 0)
(0 5.55112e-17 0)
(0 5.55112e-17 -2.22045e-16)
(0 0 0)
(0 5.55112e-17 -2.22045e-16)
(0 5.55112e-17 -2.22045e-16)
(0 0 0)
(0 1.11022e-16 4.44089e-16)
(0 1.11022e-16 0)
(0 1.11022e-16 4.44089e-16)
(0 0 0)
(0 -1.11022e-16 2.22045e-16)
(0 4.44089e-16 4.44089e-16)
(0 0 0)
(0 4.44089e-16 4.44089e-16)
(0 1.11022e-16 0)
(0 0 2.22045e-16)
(0 1.38778e-17 2.22045e-16)
(0 2.77556e-17 4.44089e-16)
(0 0 2.22045e-16)
(0 8.32667e-17 4.44089e-16)
(0 5.55112e-17 4.44089e-16)
(0 1.11022e-16 4.44089e-16)
(0 0 2.22045e-16)
(0 1.11022e-16 4.44089e-16)
(0 5.55112e-17 4.44089e-16)
(0 -1.11022e-16 2.22045e-16)
(0 1.11022e-16 2.22045e-16)
(0 -1.11022e-16 2.22045e-16)
(0 1.11022e-16 2.22045e-16)
(0 -1.11022e-16 0)
(0 0 2.22045e-16)
(0 1.11022e-16 2.22045e-16)
(0 0 2.22045e-16)
(0 2.22045e-16 2.22045e-16)
(0 0 0)
(0 0 -2.22045e-16)
(0 4.16334e-17 2.22045e-16)
(0 0 0)
(0 -2.77556e-17 0)
(0 -2.77556e-17 0)
(0 5.55112e-17 0)
(0 5.55112e-17 0)
(0 0 0)
(0 5.55112e-17 0)
(0 5.55112e-17 0)
(0 0 0)
(0 1.11022e-16 0)
(0 1.11022e-16 0)
(0 1.11022e-16 0)
(0 0 0)
(0 -1.11022e-16 -2.22045e-16)
(0 4.44089e-16 0)
(0 0 0)
(0 4.44089e-16 0)
(0 1.11022e-16 0)
(0 3.46945e-18 2.22045e-16)
(0 1.38778e-17 0)
(0 0 0)
(0 2.77556e-17 0)
(0 8.32667e-17 0)
(0 5.55112e-17 2.22045e-16)
(0 1.11022e-16 0)
(0 5.55112e-17 -2.22045e-16)
(0 1.11022e-16 2.22045e-16)
(0 5.55112e-17 0)
(0 -1.11022e-16 -2.22045e-16)
(0 0 0)
(0 0 -2.22045e-16)
(0 1.11022e-16 0)
(0 -1.11022e-16 -2.22045e-16)
(0 -1.11022e-16 -2.22045e-16)
(0 1.11022e-16 0)
(0 0 -2.22045e-16)
(0 2.22045e-16 0)
(0 0 -2.22045e-16)
(0 0 0)
(0 1.38778e-17 2.22045e-16)
(0 2.77556e-17 4.44089e-16)
(0 0 2.22045e-16)
(0 5.55112e-17 2.22045e-16)
(0 0 2.22045e-16)
(0 5.55112e-17 2.22045e-16)
(0 -1.11022e-16 -4.44089e-16)
(0 5.55112e-17 2.22045e-16)
(0 0 2.22045e-16)
(0 -1.11022e-16 -4.44089e-16)
(0 -1.11022e-16 0)
(0 -1.11022e-16 -4.44089e-16)
(0 1.11022e-16 0)
(0 1.11022e-16 0)
(0 0 -4.44089e-16)
(0 1.11022e-16 0)
(0 0 -4.44089e-16)
(0 2.22045e-16 0)
(0 2.22045e-16 0)
(0 0 -2.22045e-16)
(0 4.16334e-17 -2.22045e-16)
(0 0 0)
(0 -2.77556e-17 -2.22045e-16)
(0 -2.77556e-17 0)
(0 5.55112e-17 0)
(0 5.55112e-17 0)
(0 0 -4.44089e-16)
(0 5.55112e-17 0)
(0 5.55112e-17 0)
(0 0 -4.44089e-16)
(0 1.11022e-16 2.22045e-16)
(0 1.11022e-16 -4.44089e-16)
(0 1.11022e-16 2.22045e-16)
(0 0 -4.44089e-16)
(0 -1.11022e-16 -4.44089e-16)
(0 4.44089e-16 2.22045e-16)
(0 0 -4.44089e-16)
(0 4.44089e-16 2.22045e-16)
(0 1.11022e-16 -4.44089e-16)
(0 0 2.22045e-16)
(0 1.38778e-17 2.22045e-16)
(0 2.77556e-17 2.22045e-16)
(0 0 2.22045e-16)
(0 8.32667e-17 6.66134e-16)
(0 5.55112e-17 2.22045e-16)
(0 1.11022e-16 6.66134e-16)
(0 0 0)
(0 1.11022e-16 2.22045e-16)
(0 5.55112e-17 6.66134e-16)
(0 -1.11022e-16 0)
(0 1.11022e-16 6.66134e-16)
(0 -1.11022e-16 0)
(0 1.11022e-16 6.66134e-16)
(0 -1.11022e-16 0)
(0 0 0)
(0 1.11022e-16 6.66134e-16)
(0 0 0)
(0 2.22045e-16 6.66134e-16)
(0 0 0)
(0 0 2.22045e-16)
(0 4.16334e-17 6.66134e-16)
(0 0 0)
(0 -2.77556e-17 -2.22045e-16)
(0 -2.77556e-17 0)
(0 5.55112e-17 0)
(0 5.55112e-17 0)
(0 0 2.22045e-16)
(0 5.55112e-17 0)
(0 5.55112e-17 0)
(0 0 2.22045e-16)
(0 1.11022e-16 2.22045e-16)
(0 1.11022e-16 2.22045e-16)
(0 1.11022e-16 2.22045e-16)
(0 0 -2.22045e-16)
(0 -1.11022e-16 2.22045e-16)
(0 4.44089e-16 2.22045e-16)
(0 0 2.22045e-16)
(0 4.44089e-16 2.22045e-16)
(0 1.11022e-16 -2.22045e-16)
(0 3.46945e-18 -2.22045e-16)
(0 1.38778e-17 0)
(0 0 2.22045e-16)
(0 2.77556e-17 2.22045e-16)
(0 8.32667e-17 4.44089e-16)
(0 5.55112e-17 4.44089e-16)
(0 1.11022e-16 4.44089e-16)
(0 5.55112e-17 0)
(0 1.11022e-16 4.44089e-16)
(0 5.55112e-17 4.44089e-16)
(0 -1.11022e-16 0)
(0 0 0)
(0 0 0)
(0 1.11022e-16 0)
(0 -1.11022e-16 0)
(0 -1.11022e-16 0)
(0 1.11022e-16 0)
(0 0 0)
(0 2.22045e-16 0)
(0 0 0)
)
;
    }
    side1
    {
        type            patch;
        nFaces          20;
        startFace       1600;
    }
    side2
    {
        type            patch;
        nFaces          20;
        startFace       1620;
    }
)

// ************************************************************************* //
